
     RDKit          3D

 38 40  0  0  0  0  0  0  0  0999 V2000
   18.7989   -9.1545   -2.6308 C   0  0  0  0  0  0  0  0  0  0  0  0
   20.0529   -9.6309   -2.9798 C   0  0  0  0  0  0  0  0  0  0  0  0
   20.2025  -10.4137   -4.1027 C   0  0  0  0  0  0  0  0  0  0  0  0
   19.0845  -10.7176   -4.8768 C   0  0  0  0  0  0  0  0  0  0  0  0
   17.8300  -10.2271   -4.5068 C   0  0  0  0  0  0  0  0  0  0  0  0
   17.6890   -9.4471   -3.3856 C   0  0  0  0  0  0  0  0  0  0  0  0
   16.3827   -8.9337   -2.9987 C   0  0  0  0  0  0  0  0  0  0  0  0
   15.6682   -8.4085   -4.0998 O   0  0  0  0  0  1  0  0  0  0  0  0
   15.4745  -10.0088   -2.4180 C   0  0  0  0  0  0  0  0  0  0  0  0
   14.2315   -9.4015   -2.0776 N   0  0  0  0  0  0  0  0  0  0  0  0
   14.0865   -8.3672   -1.0832 C   0  0  0  0  0  0  0  0  0  0  0  0
   15.1136   -7.8971   -0.3611 N   0  0  0  0  0  0  0  0  0  0  0  0
   14.9349   -6.9232    0.5625 C   0  0  0  0  0  0  0  0  0  0  0  0
   13.7088   -6.4006    0.7779 N   0  0  0  0  0  0  0  0  0  0  0  0
   12.6148   -6.8198    0.0898 C   0  0  0  0  0  0  0  0  0  0  0  0
   11.3004   -6.2438    0.3350 C   0  0  0  0  0  0  0  0  0  0  0  0
   10.1607   -6.6265   -0.3278 C   0  0  0  0  0  0  0  0  0  0  0  0
    8.9323   -6.0562   -0.0677 C   0  0  0  0  0  0  0  0  0  0  0  0
    8.8103   -5.0628    0.8871 C   0  0  0  0  0  0  0  0  0  0  0  0
    9.9350   -4.6694    1.5568 C   0  0  0  0  0  0  0  0  0  0  0  0
   11.1536   -5.2537    1.2804 C   0  0  0  0  0  0  0  0  0  0  0  0
   12.8401   -7.8116   -0.8401 C   0  0  0  0  0  0  0  0  0  0  0  0
   18.7201   -8.5484   -1.7507 H   0  0  0  0  0  0  0  0  0  0  0  0
   20.9210   -9.4017   -2.3890 H   0  0  0  0  0  0  0  0  0  0  0  0
   21.1641  -10.8020   -4.4051 H   0  0  0  0  0  0  0  0  0  0  0  0
   19.2106  -11.3252   -5.7457 H   0  0  0  0  0  0  0  0  0  0  0  0
   16.9591  -10.4569   -5.0992 H   0  0  0  0  0  0  0  0  0  0  0  0
   16.4517   -8.0992   -2.2748 H   0  0  0  0  0  0  0  0  0  0  0  0
   15.9240  -10.4615   -1.5060 H   0  0  0  0  0  0  0  0  0  0  0  0
   15.3076  -10.7588   -3.2142 H   0  0  0  0  0  0  0  0  0  0  0  0
   13.3598   -9.7295   -2.5856 H   0  0  0  0  0  0  0  0  0  0  0  0
   15.7364   -6.5298    1.1525 H   0  0  0  0  0  0  0  0  0  0  0  0
   10.1950   -7.3951   -1.0817 H   0  0  0  0  0  0  0  0  0  0  0  0
    8.0207   -6.3398   -0.5758 H   0  0  0  0  0  0  0  0  0  0  0  0
    7.8354   -4.6174    1.0863 H   0  0  0  0  0  0  0  0  0  0  0  0
    9.8687   -3.8867    2.3161 H   0  0  0  0  0  0  0  0  0  0  0  0
   12.0045   -4.8982    1.8445 H   0  0  0  0  0  0  0  0  0  0  0  0
   12.0201   -8.1989   -1.4282 H   0  0  0  0  0  0  0  0  0  0  0  0
  1  2  2  0
  2  3  1  0
  3  4  2  0
  4  5  1  0
  5  6  2  0
  6  7  1  0
  7  8  1  0
  7  9  1  0
  9 10  1  0
 10 11  1  0
 11 12  2  0
 12 13  1  0
 13 14  2  0
 14 15  1  0
 15 16  1  0
 16 17  2  0
 17 18  1  0
 18 19  2  0
 19 20  1  0
 20 21  2  0
 15 22  2  0
  6  1  1  0
 22 11  1  0
 21 16  1  0
  1 23  1  0
  2 24  1  0
  3 25  1  0
  4 26  1  0
  5 27  1  0
  7 28  1  0
  9 29  1  0
  9 30  1  0
 10 31  1  0
 13 32  1  0
 17 33  1  0
 18 34  1  0
 19 35  1  0
 20 36  1  0
 21 37  1  0
 22 38  1  0
M  RAD  1   8   2
M  END
