
     RDKit          3D

 51 53  0  0  0  0  0  0  0  0999 V2000
   17.8185  -10.2901   -4.4961 C   0  0  0  0  0  0  0  0  0  0  0  0
   19.0398  -10.8025   -4.8949 C   0  0  0  0  0  0  0  0  0  0  0  0
   20.1947  -10.5314   -4.1958 C   0  0  0  0  0  0  0  0  0  0  0  0
   20.0937   -9.7277   -3.0783 C   0  0  0  0  0  0  0  0  0  0  0  0
   18.8638   -9.2172   -2.6845 C   0  0  0  0  0  0  0  0  0  0  0  0
   17.7059   -9.4862   -3.3816 C   0  0  0  0  0  0  0  0  0  0  0  0
   16.4008   -8.9236   -2.9330 C   0  0  1  0  0  0  0  0  0  0  0  0
   15.7797   -8.4441   -4.0948 O   0  0  0  0  0  0  0  0  0  0  0  0
   15.5097   -9.9728   -2.3537 C   0  0  0  0  0  0  0  0  0  0  0  0
   14.2239   -9.3956   -2.0418 N   0  0  0  0  0  0  0  0  0  0  0  0
   14.0299   -8.3547   -1.0948 C   0  0  0  0  0  0  0  0  0  0  0  0
   15.0909   -7.8805   -0.4296 N   0  0  0  0  0  0  0  0  0  0  0  0
   14.8920   -6.8968    0.4629 C   0  0  0  0  0  0  0  0  0  0  0  0
   13.6673   -6.3887    0.6962 N   0  0  0  0  0  0  0  0  0  0  0  0
   12.5686   -6.8286    0.0559 C   0  0  0  0  0  0  0  0  0  0  0  0
   11.2622   -6.2589    0.3321 C   0  0  0  0  0  0  0  0  0  0  0  0
   10.0863   -6.6375   -0.2660 C   0  0  0  0  0  0  0  0  0  0  0  0
    8.8531   -6.0635    0.0304 C   0  0  0  0  0  0  0  0  0  0  0  0
    8.7973   -5.0652    0.9686 C   0  0  0  0  0  0  0  0  0  0  0  0
    7.5003   -4.4535    1.2881 C   0  0  0  0  0  0  0  0  0  0  0  0
    6.8779   -5.2578    2.4351 C   0  0  0  0  0  0  0  0  0  0  0  0
    6.5094   -4.5296    0.1434 C   0  0  0  0  0  0  0  0  0  0  0  0
    7.6560   -3.0097    1.6587 C   0  0  0  0  0  0  0  0  0  0  0  0
    9.9612   -4.6490    1.6000 C   0  0  0  0  0  0  0  0  0  0  0  0
   11.1732   -5.2376    1.2855 C   0  0  0  0  0  0  0  0  0  0  0  0
   12.7632   -7.8344   -0.8585 C   0  0  0  0  0  0  0  0  0  0  0  0
   16.9093  -10.4980   -5.0388 H   0  0  0  0  0  0  0  0  0  0  0  0
   19.0925  -11.4296   -5.7739 H   0  0  0  0  0  0  0  0  0  0  0  0
   21.1698  -10.9195   -4.4843 H   0  0  0  0  0  0  0  0  0  0  0  0
   21.0013   -9.4998   -2.5077 H   0  0  0  0  0  0  0  0  0  0  0  0
   18.8120   -8.5860   -1.7994 H   0  0  0  0  0  0  0  0  0  0  0  0
   16.6120   -8.1455   -2.2042 H   0  0  0  0  0  0  0  0  0  0  0  0
   16.2046   -7.5668   -4.2928 H   0  0  0  0  0  0  0  0  0  0  0  0
   15.3565  -10.8117   -3.0527 H   0  0  0  0  0  0  0  0  0  0  0  0
   15.9710  -10.3692   -1.4189 H   0  0  0  0  0  0  0  0  0  0  0  0
   13.3559   -9.7597   -2.5425 H   0  0  0  0  0  0  0  0  0  0  0  0
   15.7329   -6.4775    1.0314 H   0  0  0  0  0  0  0  0  0  0  0  0
   10.1168   -7.4216   -1.0056 H   0  0  0  0  0  0  0  0  0  0  0  0
    7.9428   -6.4017   -0.4755 H   0  0  0  0  0  0  0  0  0  0  0  0
    7.5680   -5.3796    3.2763 H   0  0  0  0  0  0  0  0  0  0  0  0
    6.6404   -6.2569    1.9829 H   0  0  0  0  0  0  0  0  0  0  0  0
    5.9075   -4.8015    2.6977 H   0  0  0  0  0  0  0  0  0  0  0  0
    5.6117   -3.9427    0.4818 H   0  0  0  0  0  0  0  0  0  0  0  0
    6.9242   -4.1605   -0.8061 H   0  0  0  0  0  0  0  0  0  0  0  0
    6.1319   -5.5623   -0.0170 H   0  0  0  0  0  0  0  0  0  0  0  0
    8.1769   -2.8440    2.6180 H   0  0  0  0  0  0  0  0  0  0  0  0
    8.2504   -2.5228    0.8645 H   0  0  0  0  0  0  0  0  0  0  0  0
    6.6315   -2.5374    1.6628 H   0  0  0  0  0  0  0  0  0  0  0  0
    9.9268   -3.8562    2.3470 H   0  0  0  0  0  0  0  0  0  0  0  0
   12.0941   -4.9169    1.7768 H   0  0  0  0  0  0  0  0  0  0  0  0
   11.9092   -8.2269   -1.4042 H   0  0  0  0  0  0  0  0  0  0  0  0
  1  2  2  0
  2  3  1  0
  3  4  2  0
  4  5  1  0
  5  6  2  0
  6  7  1  0
  7  8  1  0
  7  9  1  0
  9 10  1  0
 10 11  1  0
 11 12  2  0
 12 13  1  0
 13 14  2  0
 14 15  1  0
 15 16  1  0
 16 17  2  0
 17 18  1  0
 18 19  2  0
 19 20  1  0
 20 21  1  0
 20 22  1  0
 20 23  1  0
 19 24  1  0
 24 25  2  0
 15 26  2  0
  6  1  1  0
 26 11  1  0
 25 16  1  0
  1 27  1  0
  2 28  1  0
  3 29  1  0
  4 30  1  0
  5 31  1  0
  7 32  1  1
  8 33  1  0
  9 34  1  0
  9 35  1  0
 10 36  1  0
 13 37  1  0
 17 38  1  0
 18 39  1  0
 21 40  1  0
 21 41  1  0
 21 42  1  0
 22 43  1  0
 22 44  1  0
 22 45  1  0
 23 46  1  0
 23 47  1  0
 23 48  1  0
 24 49  1  0
 25 50  1  0
 26 51  1  0
M  END
