
     RDKit          3D

 41 43  0  0  0  0  0  0  0  0999 V2000
   18.7820   -9.5329   -2.5244 C   0  0  0  0  0  0  0  0  0  0  0  0
   20.0151  -10.0953   -2.8579 C   0  0  0  0  0  0  0  0  0  0  0  0
   20.2489  -10.5717   -4.1293 C   0  0  0  0  0  0  0  0  0  0  0  0
   19.2325  -10.4767   -5.0583 C   0  0  0  0  0  0  0  0  0  0  0  0
   17.9979   -9.9108   -4.7156 C   0  0  0  0  0  0  0  0  0  0  0  0
   17.7656   -9.4353   -3.4452 C   0  0  0  0  0  0  0  0  0  0  0  0
   16.4380   -8.8288   -3.0795 C   0  0  0  0  0  0  0  0  0  0  0  0
   16.6365   -7.6617   -2.3808 O   0  0  0  0  0  1  0  0  0  0  0  0
   15.5606   -9.8143   -2.3863 C   0  0  0  0  0  0  0  0  0  0  0  0
   14.2882   -9.2522   -2.0279 N   0  0  0  0  0  0  0  0  0  0  0  0
   14.0863   -8.2426   -1.0415 C   0  0  0  0  0  0  0  0  0  0  0  0
   15.0716   -7.7362   -0.3072 N   0  0  0  0  0  0  0  0  0  0  0  0
   14.8573   -6.7983    0.6087 C   0  0  0  0  0  0  0  0  0  0  0  0
   13.6221   -6.3321    0.8186 N   0  0  0  0  0  0  0  0  0  0  0  0
   12.5715   -6.8149    0.0942 C   0  0  0  0  0  0  0  0  0  0  0  0
   11.2710   -6.2503    0.3946 C   0  0  0  0  0  0  0  0  0  0  0  0
   10.1625   -6.6801   -0.2866 C   0  0  0  0  0  0  0  0  0  0  0  0
    8.8974   -6.1387    0.0002 C   0  0  0  0  0  0  0  0  0  0  0  0
    8.7574   -5.1714    0.9682 C   0  0  0  0  0  0  0  0  0  0  0  0
    7.4316   -4.5862    1.2882 C   0  0  0  0  0  0  0  0  0  0  0  0
    7.5385   -3.5614    2.1848 F   0  0  0  0  0  0  0  0  0  0  0  0
    6.6618   -5.6252    1.8189 F   0  0  0  0  0  0  0  0  0  0  0  0
    6.8318   -4.1661    0.1230 F   0  0  0  0  0  0  0  0  0  0  0  0
    9.8707   -4.7331    1.6593 C   0  0  0  0  0  0  0  0  0  0  0  0
   11.0986   -5.2775    1.3611 C   0  0  0  0  0  0  0  0  0  0  0  0
   12.7902   -7.7822   -0.8511 C   0  0  0  0  0  0  0  0  0  0  0  0
   18.6047   -9.1582   -1.5146 H   0  0  0  0  0  0  0  0  0  0  0  0
   20.8212  -10.1772   -2.1419 H   0  0  0  0  0  0  0  0  0  0  0  0
   21.1994  -11.0155   -4.4184 H   0  0  0  0  0  0  0  0  0  0  0  0
   19.4165  -10.8520   -6.0605 H   0  0  0  0  0  0  0  0  0  0  0  0
   17.2114   -9.8434   -5.4550 H   0  0  0  0  0  0  0  0  0  0  0  0
   15.9191   -8.5456   -4.0370 H   0  0  0  0  0  0  0  0  0  0  0  0
   15.4068  -10.7460   -2.9682 H   0  0  0  0  0  0  0  0  0  0  0  0
   16.0364  -10.1333   -1.4074 H   0  0  0  0  0  0  0  0  0  0  0  0
   13.4416   -9.6260   -2.5456 H   0  0  0  0  0  0  0  0  0  0  0  0
   15.6979   -6.4131    1.1874 H   0  0  0  0  0  0  0  0  0  0  0  0
   10.1919   -7.4334   -1.0575 H   0  0  0  0  0  0  0  0  0  0  0  0
    8.0196   -6.4650   -0.5250 H   0  0  0  0  0  0  0  0  0  0  0  0
    9.7777   -3.9756    2.4211 H   0  0  0  0  0  0  0  0  0  0  0  0
   11.9946   -4.9461    1.8952 H   0  0  0  0  0  0  0  0  0  0  0  0
   11.9778   -8.1842   -1.4409 H   0  0  0  0  0  0  0  0  0  0  0  0
  1  2  2  0
  2  3  1  0
  3  4  2  0
  4  5  1  0
  5  6  2  0
  6  7  1  0
  7  8  1  0
  7  9  1  0
  9 10  1  0
 10 11  1  0
 11 12  2  0
 12 13  1  0
 13 14  2  0
 14 15  1  0
 15 16  1  0
 16 17  2  0
 17 18  1  0
 18 19  2  0
 19 20  1  0
 20 21  1  0
 20 22  1  0
 20 23  1  0
 19 24  1  0
 24 25  2  0
 15 26  2  0
  6  1  1  0
 26 11  1  0
 25 16  1  0
  1 27  1  0
  2 28  1  0
  3 29  1  0
  4 30  1  0
  5 31  1  0
  7 32  1  0
  9 33  1  0
  9 34  1  0
 10 35  1  0
 13 36  1  0
 17 37  1  0
 18 38  1  0
 24 39  1  0
 25 40  1  0
 26 41  1  0
M  RAD  1   8   2
M  END
