6
  PyMOL2.4          3D                             0

 41 43  0  0  0  0  0  0  0  0999 V2000
   18.7820   -9.5330   -2.5240 C   0  0  0  0  0  0  0  0  0  0  0  0
   20.0150  -10.0950   -2.8580 C   0  0  0  0  0  0  0  0  0  0  0  0
   20.2490  -10.5720   -4.1290 C   0  0  0  0  0  0  0  0  0  0  0  0
   19.2330  -10.4770   -5.0580 C   0  0  0  0  0  0  0  0  0  0  0  0
   17.9980   -9.9110   -4.7160 C   0  0  0  0  0  0  0  0  0  0  0  0
   17.7660   -9.4350   -3.4450 C   0  0  0  0  0  0  0  0  0  0  0  0
   16.4380   -8.8290   -3.0790 C   0  0  0  0  0  0  0  0  0  0  0  0
   16.6360   -7.6620   -2.3810 O   0  5  0  0  0  0  0  0  0  0  0  0
   15.5610   -9.8140   -2.3860 C   0  0  0  0  0  0  0  0  0  0  0  0
   14.2880   -9.2520   -2.0280 N   0  0  0  0  0  0  0  0  0  0  0  0
   14.0860   -8.2430   -1.0410 C   0  0  0  0  0  0  0  0  0  0  0  0
   15.0720   -7.7360   -0.3070 N   0  0  0  0  0  0  0  0  0  0  0  0
   14.8570   -6.7980    0.6090 C   0  0  0  0  0  0  0  0  0  0  0  0
   13.6220   -6.3320    0.8190 N   0  0  0  0  0  0  0  0  0  0  0  0
   12.5710   -6.8150    0.0940 C   0  0  0  0  0  0  0  0  0  0  0  0
   11.2710   -6.2500    0.3950 C   0  0  0  0  0  0  0  0  0  0  0  0
   10.1630   -6.6800   -0.2870 C   0  0  0  0  0  0  0  0  0  0  0  0
    8.8970   -6.1390    0.0000 C   0  0  0  0  0  0  0  0  0  0  0  0
    8.7570   -5.1710    0.9680 C   0  0  0  0  0  0  0  0  0  0  0  0
    7.4320   -4.5860    1.2880 C   0  0  0  0  0  0  0  0  0  0  0  0
    7.5380   -3.5610    2.1850 F   0  0  0  0  0  0  0  0  0  0  0  0
    6.6620   -5.6250    1.8190 F   0  0  0  0  0  0  0  0  0  0  0  0
    6.8320   -4.1660    0.1230 F   0  0  0  0  0  0  0  0  0  0  0  0
    9.8710   -4.7330    1.6590 C   0  0  0  0  0  0  0  0  0  0  0  0
   11.0990   -5.2780    1.3610 C   0  0  0  0  0  0  0  0  0  0  0  0
   12.7900   -7.7820   -0.8510 C   0  0  0  0  0  0  0  0  0  0  0  0
   18.6050   -9.1580   -1.5150 H   0  0  0  0  0  0  0  0  0  0  0  0
   20.8210  -10.1770   -2.1420 H   0  0  0  0  0  0  0  0  0  0  0  0
   21.1990  -11.0160   -4.4180 H   0  0  0  0  0  0  0  0  0  0  0  0
   19.4170  -10.8520   -6.0610 H   0  0  0  0  0  0  0  0  0  0  0  0
   17.2110   -9.8430   -5.4550 H   0  0  0  0  0  0  0  0  0  0  0  0
   15.9190   -8.5460   -4.0370 H   0  0  0  0  0  0  0  0  0  0  0  0
   15.4070  -10.7460   -2.9680 H   0  0  0  0  0  0  0  0  0  0  0  0
   16.0360  -10.1330   -1.4070 H   0  0  0  0  0  0  0  0  0  0  0  0
   13.4420   -9.6260   -2.5460 H   0  0  0  0  0  0  0  0  0  0  0  0
   15.6980   -6.4130    1.1870 H   0  0  0  0  0  0  0  0  0  0  0  0
   10.1920   -7.4330   -1.0580 H   0  0  0  0  0  0  0  0  0  0  0  0
    8.0200   -6.4650   -0.5250 H   0  0  0  0  0  0  0  0  0  0  0  0
    9.7780   -3.9760    2.4210 H   0  0  0  0  0  0  0  0  0  0  0  0
   11.9950   -4.9460    1.8950 H   0  0  0  0  0  0  0  0  0  0  0  0
   11.9780   -8.1840   -1.4410 H   0  0  0  0  0  0  0  0  0  0  0  0
  1  2  2  0  0  0  0
  1  6  1  0  0  0  0
  1 27  1  0  0  0  0
  2  3  1  0  0  0  0
  2 28  1  0  0  0  0
  3  4  2  0  0  0  0
  3 29  1  0  0  0  0
  4  5  1  0  0  0  0
  4 30  1  0  0  0  0
  5  6  2  0  0  0  0
  5 31  1  0  0  0  0
  6  7  1  0  0  0  0
  7  8  1  0  0  0  0
  7  9  1  0  0  0  0
  7 32  1  0  0  0  0
  9 10  1  0  0  0  0
  9 33  1  0  0  0  0
  9 34  1  0  0  0  0
 10 11  1  0  0  0  0
 10 35  1  0  0  0  0
 11 12  2  0  0  0  0
 11 26  1  0  0  0  0
 12 13  1  0  0  0  0
 13 14  2  0  0  0  0
 13 36  1  0  0  0  0
 14 15  1  0  0  0  0
 15 16  1  0  0  0  0
 15 26  2  0  0  0  0
 16 17  2  0  0  0  0
 16 25  1  0  0  0  0
 17 18  1  0  0  0  0
 17 37  1  0  0  0  0
 18 19  2  0  0  0  0
 18 38  1  0  0  0  0
 19 20  1  0  0  0  0
 19 24  1  0  0  0  0
 20 21  1  0  0  0  0
 20 22  1  0  0  0  0
 20 23  1  0  0  0  0
 24 25  2  0  0  0  0
 24 39  1  0  0  0  0
 25 40  1  0  0  0  0
 26 41  1  0  0  0  0
M  END
$$$$
