
     RDKit          3D

 47 49  0  0  0  0  0  0  0  0999 V2000
   17.9155  -10.3081   -4.4569 C   0  0  0  0  0  0  0  0  0  0  0  0
   19.1846  -10.7778   -4.7442 C   0  0  0  0  0  0  0  0  0  0  0  0
   20.2723  -10.4058   -3.9864 C   0  0  0  0  0  0  0  0  0  0  0  0
   20.0538   -9.5498   -2.9318 C   0  0  0  0  0  0  0  0  0  0  0  0
   18.7819   -9.0883   -2.6557 C   0  0  0  0  0  0  0  0  0  0  0  0
   17.6819   -9.4497   -3.4030 C   0  0  0  0  0  0  0  0  0  0  0  0
   16.3514   -8.9124   -3.0435 C   0  0  0  0  0  0  0  0  0  0  0  0
   15.7451   -8.5071   -4.2549 O   0  0  0  0  0  1  0  0  0  0  0  0
   15.4516   -9.9294   -2.4284 C   0  0  0  0  0  0  0  0  0  0  0  0
   14.1689   -9.3792   -2.0913 N   0  0  0  0  0  0  0  0  0  0  0  0
   14.0135   -8.3555   -1.1244 C   0  0  0  0  0  0  0  0  0  0  0  0
   15.0914   -7.8916   -0.4663 N   0  0  0  0  0  0  0  0  0  0  0  0
   14.9188   -6.9235    0.4431 C   0  0  0  0  0  0  0  0  0  0  0  0
   13.7043   -6.4202    0.7003 N   0  0  0  0  0  0  0  0  0  0  0  0
   12.5758   -6.8464    0.0692 C   0  0  0  0  0  0  0  0  0  0  0  0
   11.2801   -6.2660    0.3861 C   0  0  0  0  0  0  0  0  0  0  0  0
   11.2134   -5.2735    1.3397 C   0  0  0  0  0  0  0  0  0  0  0  0
   10.0277   -4.6727    1.6976 C   0  0  0  0  0  0  0  0  0  0  0  0
    8.8667   -5.0771    1.0816 C   0  0  0  0  0  0  0  0  0  0  0  0
    7.5878   -4.4246    1.4722 C   0  0  0  0  0  0  0  0  0  0  0  0
    6.7164   -5.5241    2.0823 C   0  0  0  0  0  0  0  0  0  0  0  0
    6.8625   -3.9030    0.2649 C   0  0  0  0  0  0  0  0  0  0  0  0
    8.8824   -6.0700    0.1178 C   0  0  0  0  0  0  0  0  0  0  0  0
   10.1041   -6.6444   -0.2075 C   0  0  0  0  0  0  0  0  0  0  0  0
   12.7359   -7.8397   -0.8671 C   0  0  0  0  0  0  0  0  0  0  0  0
   17.0620  -10.6147   -5.0707 H   0  0  0  0  0  0  0  0  0  0  0  0
   19.3348  -11.4462   -5.5728 H   0  0  0  0  0  0  0  0  0  0  0  0
   21.2775  -10.7693   -4.2030 H   0  0  0  0  0  0  0  0  0  0  0  0
   20.9209   -9.2652   -2.3431 H   0  0  0  0  0  0  0  0  0  0  0  0
   18.6517   -8.4194   -1.8215 H   0  0  0  0  0  0  0  0  0  0  0  0
   16.4168   -8.0302   -2.3888 H   0  0  0  0  0  0  0  0  0  0  0  0
   15.8909  -10.3113   -1.4592 H   0  0  0  0  0  0  0  0  0  0  0  0
   15.3495  -10.8410   -3.0528 H   0  0  0  0  0  0  0  0  0  0  0  0
   13.3241   -9.7418   -2.5705 H   0  0  0  0  0  0  0  0  0  0  0  0
   15.8108   -6.5545    0.9732 H   0  0  0  0  0  0  0  0  0  0  0  0
   12.1243   -4.9556    1.8236 H   0  0  0  0  0  0  0  0  0  0  0  0
    9.9715   -3.8996    2.4396 H   0  0  0  0  0  0  0  0  0  0  0  0
    7.7673   -3.6703    2.2405 H   0  0  0  0  0  0  0  0  0  0  0  0
    6.9099   -6.4644    1.5468 H   0  0  0  0  0  0  0  0  0  0  0  0
    6.9002   -5.5897    3.1789 H   0  0  0  0  0  0  0  0  0  0  0  0
    5.6684   -5.2442    1.9433 H   0  0  0  0  0  0  0  0  0  0  0  0
    6.1630   -3.1088    0.6227 H   0  0  0  0  0  0  0  0  0  0  0  0
    6.2613   -4.7217   -0.1569 H   0  0  0  0  0  0  0  0  0  0  0  0
    7.5383   -3.4409   -0.4808 H   0  0  0  0  0  0  0  0  0  0  0  0
    7.9507   -6.3713   -0.3539 H   0  0  0  0  0  0  0  0  0  0  0  0
   10.1041   -7.4155   -0.9583 H   0  0  0  0  0  0  0  0  0  0  0  0
   11.8902   -8.2364   -1.4153 H   0  0  0  0  0  0  0  0  0  0  0  0
  1  2  2  0
  2  3  1  0
  3  4  2  0
  4  5  1  0
  5  6  2  0
  6  7  1  0
  7  8  1  0
  7  9  1  0
  9 10  1  0
 10 11  1  0
 11 12  2  0
 12 13  1  0
 13 14  2  0
 14 15  1  0
 15 16  1  0
 16 17  2  0
 17 18  1  0
 18 19  2  0
 19 20  1  0
 20 21  1  0
 20 22  1  0
 19 23  1  0
 23 24  2  0
 15 25  2  0
  6  1  1  0
 25 11  1  0
 24 16  1  0
  1 26  1  0
  2 27  1  0
  3 28  1  0
  4 29  1  0
  5 30  1  0
  7 31  1  0
  9 32  1  0
  9 33  1  0
 10 34  1  0
 13 35  1  0
 17 36  1  0
 18 37  1  0
 20 38  1  0
 21 39  1  0
 21 40  1  0
 21 41  1  0
 22 42  1  0
 22 43  1  0
 22 44  1  0
 23 45  1  0
 24 46  1  0
 25 47  1  0
M  RAD  1   8   2
M  END
