
     RDKit          3D

 50 52  0  0  0  0  0  0  0  0999 V2000
   18.8287   -9.2118   -2.6031 C   0  0  0  0  0  0  0  0  0  0  0  0
   20.0752   -9.7237   -2.9776 C   0  0  0  0  0  0  0  0  0  0  0  0
   20.2362  -10.4771   -4.1206 C   0  0  0  0  0  0  0  0  0  0  0  0
   19.1186  -10.7140   -4.8931 C   0  0  0  0  0  0  0  0  0  0  0  0
   17.8870  -10.2073   -4.5213 C   0  0  0  0  0  0  0  0  0  0  0  0
   17.7157   -9.4527   -3.3801 C   0  0  0  0  0  0  0  0  0  0  0  0
   16.3797   -8.9120   -2.9938 C   0  0  0  0  0  0  0  0  0  0  0  0
   15.7338   -8.3552   -4.1126 O   0  0  0  0  0  1  0  0  0  0  0  0
   15.5034   -9.9736   -2.3870 C   0  0  0  0  0  0  0  0  0  0  0  0
   14.2327   -9.3790   -2.0422 N   0  0  0  0  0  0  0  0  0  0  0  0
   14.0286   -8.3590   -1.0999 C   0  0  0  0  0  0  0  0  0  0  0  0
   15.0645   -7.8719   -0.4089 N   0  0  0  0  0  0  0  0  0  0  0  0
   14.9004   -6.8999    0.4942 C   0  0  0  0  0  0  0  0  0  0  0  0
   13.6812   -6.4118    0.7054 N   0  0  0  0  0  0  0  0  0  0  0  0
   12.5786   -6.8482    0.0492 C   0  0  0  0  0  0  0  0  0  0  0  0
   11.2840   -6.2523    0.3473 C   0  0  0  0  0  0  0  0  0  0  0  0
   10.1183   -6.6363   -0.2719 C   0  0  0  0  0  0  0  0  0  0  0  0
    8.8960   -6.0317    0.0487 C   0  0  0  0  0  0  0  0  0  0  0  0
    8.8173   -5.0354    0.9912 C   0  0  0  0  0  0  0  0  0  0  0  0
    7.5376   -4.3723    1.3558 C   0  0  0  0  0  0  0  0  0  0  0  0
    6.8830   -5.1063    2.4833 C   0  0  0  0  0  0  0  0  0  0  0  0
    6.6043   -4.3968    0.1634 C   0  0  0  0  0  0  0  0  0  0  0  0
    7.7199   -2.9256    1.7475 C   0  0  0  0  0  0  0  0  0  0  0  0
    9.9753   -4.6441    1.6159 C   0  0  0  0  0  0  0  0  0  0  0  0
   11.1797   -5.2386    1.3011 C   0  0  0  0  0  0  0  0  0  0  0  0
   12.7682   -7.8408   -0.8685 C   0  0  0  0  0  0  0  0  0  0  0  0
   18.7168   -8.6207   -1.7014 H   0  0  0  0  0  0  0  0  0  0  0  0
   20.9386   -9.5257   -2.3569 H   0  0  0  0  0  0  0  0  0  0  0  0
   21.2150  -10.8714   -4.4029 H   0  0  0  0  0  0  0  0  0  0  0  0
   19.1965  -11.3058   -5.8087 H   0  0  0  0  0  0  0  0  0  0  0  0
   16.9868  -10.3823   -5.1185 H   0  0  0  0  0  0  0  0  0  0  0  0
   16.4717   -8.0844   -2.2665 H   0  0  0  0  0  0  0  0  0  0  0  0
   15.3819  -10.7669   -3.1482 H   0  0  0  0  0  0  0  0  0  0  0  0
   16.0165  -10.3918   -1.4910 H   0  0  0  0  0  0  0  0  0  0  0  0
   13.3827   -9.7569   -2.5561 H   0  0  0  0  0  0  0  0  0  0  0  0
   15.7230   -6.4864    1.0690 H   0  0  0  0  0  0  0  0  0  0  0  0
   10.1472   -7.4144   -1.0149 H   0  0  0  0  0  0  0  0  0  0  0  0
    8.0063   -6.3557   -0.4540 H   0  0  0  0  0  0  0  0  0  0  0  0
    6.8328   -4.4776    3.4113 H   0  0  0  0  0  0  0  0  0  0  0  0
    5.8172   -5.3596    2.2418 H   0  0  0  0  0  0  0  0  0  0  0  0
    7.4385   -6.0295    2.7831 H   0  0  0  0  0  0  0  0  0  0  0  0
    5.8810   -3.5673    0.2974 H   0  0  0  0  0  0  0  0  0  0  0  0
    7.2095   -4.1516   -0.7269 H   0  0  0  0  0  0  0  0  0  0  0  0
    6.0588   -5.3529    0.0606 H   0  0  0  0  0  0  0  0  0  0  0  0
    7.7126   -2.8677    2.8519 H   0  0  0  0  0  0  0  0  0  0  0  0
    8.7144   -2.5422    1.4307 H   0  0  0  0  0  0  0  0  0  0  0  0
    6.8911   -2.2851    1.3663 H   0  0  0  0  0  0  0  0  0  0  0  0
    9.9542   -3.8659    2.3612 H   0  0  0  0  0  0  0  0  0  0  0  0
   12.1186   -4.9424    1.7873 H   0  0  0  0  0  0  0  0  0  0  0  0
   11.9468   -8.2343   -1.4232 H   0  0  0  0  0  0  0  0  0  0  0  0
  1  2  2  0
  2  3  1  0
  3  4  2  0
  4  5  1  0
  5  6  2  0
  6  7  1  0
  7  8  1  0
  7  9  1  0
  9 10  1  0
 10 11  1  0
 11 12  2  0
 12 13  1  0
 13 14  2  0
 14 15  1  0
 15 16  1  0
 16 17  2  0
 17 18  1  0
 18 19  2  0
 19 20  1  0
 20 21  1  0
 20 22  1  0
 20 23  1  0
 19 24  1  0
 24 25  2  0
 15 26  2  0
  6  1  1  0
 26 11  1  0
 25 16  1  0
  1 27  1  0
  2 28  1  0
  3 29  1  0
  4 30  1  0
  5 31  1  0
  7 32  1  0
  9 33  1  0
  9 34  1  0
 10 35  1  0
 13 36  1  0
 17 37  1  0
 18 38  1  0
 21 39  1  0
 21 40  1  0
 21 41  1  0
 22 42  1  0
 22 43  1  0
 22 44  1  0
 23 45  1  0
 23 46  1  0
 23 47  1  0
 24 48  1  0
 25 49  1  0
 26 50  1  0
M  RAD  1   8   2
M  END
