
     RDKit          3D

 42 44  0  0  0  0  0  0  0  0999 V2000
   18.8239   -9.1761   -2.6153 C   0  0  0  0  0  0  0  0  0  0  0  0
   20.0628   -9.6908   -2.9432 C   0  0  0  0  0  0  0  0  0  0  0  0
   20.2202  -10.5261   -4.0280 C   0  0  0  0  0  0  0  0  0  0  0  0
   19.0956  -10.8239   -4.7667 C   0  0  0  0  0  0  0  0  0  0  0  0
   17.8537  -10.3044   -4.4332 C   0  0  0  0  0  0  0  0  0  0  0  0
   17.6925   -9.4679   -3.3479 C   0  0  0  0  0  0  0  0  0  0  0  0
   16.3398   -8.9109   -2.9961 C   0  0  1  0  0  0  0  0  0  0  0  0
   15.7201   -8.4485   -4.1770 O   0  0  0  0  0  0  0  0  0  0  0  0
   15.4541   -9.9715   -2.4117 C   0  0  0  0  0  0  0  0  0  0  0  0
   14.1625   -9.4080   -2.1226 N   0  0  0  0  0  0  0  0  0  0  0  0
   14.0095   -8.3677   -1.1625 C   0  0  0  0  0  0  0  0  0  0  0  0
   15.0374   -7.8698   -0.4620 N   0  0  0  0  0  0  0  0  0  0  0  0
   14.9472   -6.8943    0.4518 C   0  0  0  0  0  0  0  0  0  0  0  0
   13.7340   -6.3773    0.6823 N   0  0  0  0  0  0  0  0  0  0  0  0
   12.6203   -6.8145    0.0213 C   0  0  0  0  0  0  0  0  0  0  0  0
   11.3188   -6.2215    0.3070 C   0  0  0  0  0  0  0  0  0  0  0  0
   10.1531   -6.5926   -0.3028 C   0  0  0  0  0  0  0  0  0  0  0  0
    8.9399   -5.9713    0.0314 C   0  0  0  0  0  0  0  0  0  0  0  0
    8.8709   -4.9729    0.9763 C   0  0  0  0  0  0  0  0  0  0  0  0
    7.5645   -4.3251    1.3160 C   0  0  0  0  0  0  0  0  0  0  0  0
    7.4497   -4.3449    2.6958 F   0  0  0  0  0  0  0  0  0  0  0  0
    6.5757   -5.0399    0.7129 F   0  0  0  0  0  0  0  0  0  0  0  0
    7.5236   -3.0374    0.8358 F   0  0  0  0  0  0  0  0  0  0  0  0
   10.0464   -4.5987    1.5911 C   0  0  0  0  0  0  0  0  0  0  0  0
   11.2373   -5.2100    1.2618 C   0  0  0  0  0  0  0  0  0  0  0  0
   12.7564   -7.8137   -0.9053 C   0  0  0  0  0  0  0  0  0  0  0  0
   18.6904   -8.5164   -1.7613 H   0  0  0  0  0  0  0  0  0  0  0  0
   20.9488   -9.4611   -2.3680 H   0  0  0  0  0  0  0  0  0  0  0  0
   21.2016  -10.9289   -4.2810 H   0  0  0  0  0  0  0  0  0  0  0  0
   19.2124  -11.4746   -5.6136 H   0  0  0  0  0  0  0  0  0  0  0  0
   16.9552  -10.5300   -5.0067 H   0  0  0  0  0  0  0  0  0  0  0  0
   16.5150   -8.1172   -2.2635 H   0  0  0  0  0  0  0  0  0  0  0  0
   16.4443   -8.2519   -4.8390 H   0  0  0  0  0  0  0  0  0  0  0  0
   15.3711  -10.8565   -3.0754 H   0  0  0  0  0  0  0  0  0  0  0  0
   15.8790  -10.2921   -1.4158 H   0  0  0  0  0  0  0  0  0  0  0  0
   13.3355   -9.7712   -2.6262 H   0  0  0  0  0  0  0  0  0  0  0  0
   15.7793   -6.4959    1.0144 H   0  0  0  0  0  0  0  0  0  0  0  0
   10.1750   -7.3753   -1.0507 H   0  0  0  0  0  0  0  0  0  0  0  0
    8.0347   -6.2866   -0.4682 H   0  0  0  0  0  0  0  0  0  0  0  0
    9.9868   -3.8139    2.3327 H   0  0  0  0  0  0  0  0  0  0  0  0
   12.1693   -4.9160    1.7465 H   0  0  0  0  0  0  0  0  0  0  0  0
   11.9210   -8.2188   -1.4751 H   0  0  0  0  0  0  0  0  0  0  0  0
  1  2  2  0
  2  3  1  0
  3  4  2  0
  4  5  1  0
  5  6  2  0
  6  7  1  0
  7  8  1  0
  7  9  1  0
  9 10  1  0
 10 11  1  0
 11 12  2  0
 12 13  1  0
 13 14  2  0
 14 15  1  0
 15 16  1  0
 16 17  2  0
 17 18  1  0
 18 19  2  0
 19 20  1  0
 20 21  1  0
 20 22  1  0
 20 23  1  0
 19 24  1  0
 24 25  2  0
 15 26  2  0
  6  1  1  0
 26 11  1  0
 25 16  1  0
  1 27  1  0
  2 28  1  0
  3 29  1  0
  4 30  1  0
  5 31  1  0
  7 32  1  1
  8 33  1  0
  9 34  1  0
  9 35  1  0
 10 36  1  0
 13 37  1  0
 17 38  1  0
 18 39  1  0
 24 40  1  0
 25 41  1  0
 26 42  1  0
M  END
