1
  PyMOL2.4          3D                             0

 39 41  0  0  0  0  0  0  0  0999 V2000
   18.7720   -9.1000   -2.6460 C   0  0  0  0  0  0  0  0  0  0  0  0
   20.0390   -9.5580   -2.9450 C   0  0  0  0  0  0  0  0  0  0  0  0
   20.2540  -10.4010   -4.0150 C   0  0  0  0  0  0  0  0  0  0  0  0
   19.1520  -10.7570   -4.7620 C   0  0  0  0  0  0  0  0  0  0  0  0
   17.8830  -10.2970   -4.4610 C   0  0  0  0  0  0  0  0  0  0  0  0
   17.6640   -9.4530   -3.3900 C   0  0  0  0  0  0  0  0  0  0  0  0
   16.2870   -8.9550   -3.0660 C   0  0  0  0  0  0  0  0  0  0  0  0
   15.6340   -8.5340   -4.2340 O   0  0  0  0  0  0  0  0  0  0  0  0
   15.4510   -9.9980   -2.4120 C   0  0  0  0  0  0  0  0  0  0  0  0
   14.1600   -9.4540   -2.0840 N   0  0  0  0  0  0  0  0  0  0  0  0
   14.0420   -8.4090   -1.1320 C   0  0  0  0  0  0  0  0  0  0  0  0
   15.0870   -7.9010   -0.4670 N   0  0  0  0  0  0  0  0  0  0  0  0
   14.9390   -6.9130    0.4260 C   0  0  0  0  0  0  0  0  0  0  0  0
   13.7320   -6.3950    0.6870 N   0  0  0  0  0  0  0  0  0  0  0  0
   12.6240   -6.8600    0.0510 C   0  0  0  0  0  0  0  0  0  0  0  0
   11.3230   -6.2610    0.3690 C   0  0  0  0  0  0  0  0  0  0  0  0
   10.1520   -6.6670   -0.2250 C   0  0  0  0  0  0  0  0  0  0  0  0
    8.9320   -6.0650    0.1120 C   0  0  0  0  0  0  0  0  0  0  0  0
    8.8660   -5.0510    1.0430 C   0  0  0  0  0  0  0  0  0  0  0  0
   10.0420   -4.6470    1.6360 C   0  0  0  0  0  0  0  0  0  0  0  0
   11.2390   -5.2460    1.2990 C   0  0  0  0  0  0  0  0  0  0  0  0
   12.7890   -7.8620   -0.8530 C   0  0  0  0  0  0  0  0  0  0  0  0
   18.5970   -8.4360   -1.8050 H   0  0  0  0  0  0  0  0  0  0  0  0
   20.9080   -9.2780   -2.3580 H   0  0  0  0  0  0  0  0  0  0  0  0
   21.2510  -10.7630   -4.2530 H   0  0  0  0  0  0  0  0  0  0  0  0
   19.2820  -11.4250   -5.6200 H   0  0  0  0  0  0  0  0  0  0  0  0
   17.0230  -10.5940   -5.0680 H   0  0  0  0  0  0  0  0  0  0  0  0
   16.3570   -8.0730   -2.4170 H   0  0  0  0  0  0  0  0  0  0  0  0
   15.4770   -9.2580   -4.8680 H   0  0  0  0  0  0  0  0  0  0  0  0
   15.3260  -10.9060   -3.0500 H   0  0  0  0  0  0  0  0  0  0  0  0
   15.9030  -10.3570   -1.4590 H   0  0  0  0  0  0  0  0  0  0  0  0
   13.3090   -9.8290   -2.5460 H   0  0  0  0  0  0  0  0  0  0  0  0
   15.8000   -6.5230    0.9470 H   0  0  0  0  0  0  0  0  0  0  0  0
   10.1620   -7.4520   -0.9530 H   0  0  0  0  0  0  0  0  0  0  0  0
    8.0130   -6.3920   -0.3620 H   0  0  0  0  0  0  0  0  0  0  0  0
    7.9070   -4.5990    1.2880 H   0  0  0  0  0  0  0  0  0  0  0  0
    9.9750   -3.8440    2.3710 H   0  0  0  0  0  0  0  0  0  0  0  0
   12.1630   -4.9340    1.7580 H   0  0  0  0  0  0  0  0  0  0  0  0
   11.9460   -8.2730   -1.3890 H   0  0  0  0  0  0  0  0  0  0  0  0
  1  2  2  0  0  0  0
  1  6  1  0  0  0  0
  1 23  1  0  0  0  0
  2  3  1  0  0  0  0
  2 24  1  0  0  0  0
  3  4  2  0  0  0  0
  3 25  1  0  0  0  0
  4  5  1  0  0  0  0
  4 26  1  0  0  0  0
  5  6  2  0  0  0  0
  5 27  1  0  0  0  0
  6  7  1  0  0  0  0
  7  8  1  0  0  0  0
  7  9  1  0  0  0  0
  7 28  1  0  0  0  0
  8 29  1  0  0  0  0
  9 10  1  0  0  0  0
  9 30  1  0  0  0  0
  9 31  1  0  0  0  0
 10 11  1  0  0  0  0
 10 32  1  0  0  0  0
 11 12  2  0  0  0  0
 11 22  1  0  0  0  0
 12 13  1  0  0  0  0
 13 14  2  0  0  0  0
 13 33  1  0  0  0  0
 14 15  1  0  0  0  0
 15 16  1  0  0  0  0
 15 22  2  0  0  0  0
 16 17  2  0  0  0  0
 16 21  1  0  0  0  0
 17 18  1  0  0  0  0
 17 34  1  0  0  0  0
 18 19  2  0  0  0  0
 18 35  1  0  0  0  0
 19 20  1  0  0  0  0
 19 36  1  0  0  0  0
 20 21  2  0  0  0  0
 20 37  1  0  0  0  0
 21 38  1  0  0  0  0
 22 39  1  0  0  0  0
M  END
$$$$
