4
  PyMOL2.4          3D                             0

 47 49  0  0  0  0  0  0  0  0999 V2000
   17.9160  -10.3080   -4.4570 C   0  0  0  0  0  0  0  0  0  0  0  0
   19.1850  -10.7780   -4.7440 C   0  0  0  0  0  0  0  0  0  0  0  0
   20.2720  -10.4060   -3.9860 C   0  0  0  0  0  0  0  0  0  0  0  0
   20.0540   -9.5500   -2.9320 C   0  0  0  0  0  0  0  0  0  0  0  0
   18.7820   -9.0880   -2.6560 C   0  0  0  0  0  0  0  0  0  0  0  0
   17.6820   -9.4500   -3.4030 C   0  0  0  0  0  0  0  0  0  0  0  0
   16.3510   -8.9120   -3.0430 C   0  0  0  0  0  0  0  0  0  0  0  0
   15.7450   -8.5070   -4.2550 O   0  5  0  0  0  0  0  0  0  0  0  0
   15.4520   -9.9290   -2.4280 C   0  0  0  0  0  0  0  0  0  0  0  0
   14.1690   -9.3790   -2.0910 N   0  0  0  0  0  0  0  0  0  0  0  0
   14.0140   -8.3560   -1.1240 C   0  0  0  0  0  0  0  0  0  0  0  0
   15.0910   -7.8920   -0.4660 N   0  0  0  0  0  0  0  0  0  0  0  0
   14.9190   -6.9240    0.4430 C   0  0  0  0  0  0  0  0  0  0  0  0
   13.7040   -6.4200    0.7000 N   0  0  0  0  0  0  0  0  0  0  0  0
   12.5760   -6.8460    0.0690 C   0  0  0  0  0  0  0  0  0  0  0  0
   11.2800   -6.2660    0.3860 C   0  0  0  0  0  0  0  0  0  0  0  0
   11.2130   -5.2730    1.3400 C   0  0  0  0  0  0  0  0  0  0  0  0
   10.0280   -4.6730    1.6980 C   0  0  0  0  0  0  0  0  0  0  0  0
    8.8670   -5.0770    1.0820 C   0  0  0  0  0  0  0  0  0  0  0  0
    7.5880   -4.4250    1.4720 C   0  0  0  0  0  0  0  0  0  0  0  0
    6.7160   -5.5240    2.0820 C   0  0  0  0  0  0  0  0  0  0  0  0
    6.8630   -3.9030    0.2650 C   0  0  0  0  0  0  0  0  0  0  0  0
    8.8820   -6.0700    0.1180 C   0  0  0  0  0  0  0  0  0  0  0  0
   10.1040   -6.6440   -0.2070 C   0  0  0  0  0  0  0  0  0  0  0  0
   12.7360   -7.8400   -0.8670 C   0  0  0  0  0  0  0  0  0  0  0  0
   17.0620  -10.6150   -5.0710 H   0  0  0  0  0  0  0  0  0  0  0  0
   19.3350  -11.4460   -5.5730 H   0  0  0  0  0  0  0  0  0  0  0  0
   21.2780  -10.7690   -4.2030 H   0  0  0  0  0  0  0  0  0  0  0  0
   20.9210   -9.2650   -2.3430 H   0  0  0  0  0  0  0  0  0  0  0  0
   18.6520   -8.4190   -1.8210 H   0  0  0  0  0  0  0  0  0  0  0  0
   16.4170   -8.0300   -2.3890 H   0  0  0  0  0  0  0  0  0  0  0  0
   15.8910  -10.3110   -1.4590 H   0  0  0  0  0  0  0  0  0  0  0  0
   15.3490  -10.8410   -3.0530 H   0  0  0  0  0  0  0  0  0  0  0  0
   13.3240   -9.7420   -2.5700 H   0  0  0  0  0  0  0  0  0  0  0  0
   15.8110   -6.5550    0.9730 H   0  0  0  0  0  0  0  0  0  0  0  0
   12.1240   -4.9560    1.8240 H   0  0  0  0  0  0  0  0  0  0  0  0
    9.9720   -3.9000    2.4400 H   0  0  0  0  0  0  0  0  0  0  0  0
    7.7670   -3.6700    2.2400 H   0  0  0  0  0  0  0  0  0  0  0  0
    6.9100   -6.4640    1.5470 H   0  0  0  0  0  0  0  0  0  0  0  0
    6.9000   -5.5900    3.1790 H   0  0  0  0  0  0  0  0  0  0  0  0
    5.6680   -5.2440    1.9430 H   0  0  0  0  0  0  0  0  0  0  0  0
    6.1630   -3.1090    0.6230 H   0  0  0  0  0  0  0  0  0  0  0  0
    6.2610   -4.7220   -0.1570 H   0  0  0  0  0  0  0  0  0  0  0  0
    7.5380   -3.4410   -0.4810 H   0  0  0  0  0  0  0  0  0  0  0  0
    7.9510   -6.3710   -0.3540 H   0  0  0  0  0  0  0  0  0  0  0  0
   10.1040   -7.4160   -0.9580 H   0  0  0  0  0  0  0  0  0  0  0  0
   11.8900   -8.2360   -1.4150 H   0  0  0  0  0  0  0  0  0  0  0  0
  1  2  2  0  0  0  0
  1  6  1  0  0  0  0
  1 26  1  0  0  0  0
  2  3  1  0  0  0  0
  2 27  1  0  0  0  0
  3  4  2  0  0  0  0
  3 28  1  0  0  0  0
  4  5  1  0  0  0  0
  4 29  1  0  0  0  0
  5  6  2  0  0  0  0
  5 30  1  0  0  0  0
  6  7  1  0  0  0  0
  7  8  1  0  0  0  0
  7  9  1  0  0  0  0
  7 31  1  0  0  0  0
  9 10  1  0  0  0  0
  9 32  1  0  0  0  0
  9 33  1  0  0  0  0
 10 11  1  0  0  0  0
 10 34  1  0  0  0  0
 11 12  2  0  0  0  0
 11 25  1  0  0  0  0
 12 13  1  0  0  0  0
 13 14  2  0  0  0  0
 13 35  1  0  0  0  0
 14 15  1  0  0  0  0
 15 16  1  0  0  0  0
 15 25  2  0  0  0  0
 16 17  2  0  0  0  0
 16 24  1  0  0  0  0
 17 18  1  0  0  0  0
 17 36  1  0  0  0  0
 18 19  2  0  0  0  0
 18 37  1  0  0  0  0
 19 20  1  0  0  0  0
 19 23  1  0  0  0  0
 20 21  1  0  0  0  0
 20 22  1  0  0  0  0
 20 38  1  0  0  0  0
 21 39  1  0  0  0  0
 21 40  1  0  0  0  0
 21 41  1  0  0  0  0
 22 42  1  0  0  0  0
 22 43  1  0  0  0  0
 22 44  1  0  0  0  0
 23 24  2  0  0  0  0
 23 45  1  0  0  0  0
 24 46  1  0  0  0  0
 25 47  1  0  0  0  0
M  END
$$$$
