xlig
  PyMOL2.4          3D                             0

 45 48  0  0  0  0  0  0  0  0999 V2000
   11.2640   -6.1020    0.2880 C   0  0  0  0  0  0  0  0  0  0  0  0
   15.0880   -7.8340   -0.2870 N   0  0  0  0  0  0  0  0  0  0  0  0
   15.5190   -9.0480   -4.4980 O   0  0  0  0  0  0  0  0  0  0  0  0
   10.2420   -6.0850   -0.6600 C   0  0  0  0  0  0  0  0  0  0  0  0
   13.6780   -6.2510    0.7550 N   0  0  0  0  0  0  0  0  0  0  0  0
    7.5800   -4.3740    1.2470 O   0  0  0  0  0  0  0  0  0  0  0  0
   11.0510   -5.5570    1.5470 C   0  0  0  0  0  0  0  0  0  0  0  0
   14.2340   -9.4000   -1.9460 N   0  0  0  0  0  0  0  0  0  0  0  0
    7.9790   -5.4470   -1.2120 O   0  0  0  0  0  0  0  0  0  0  0  0
    9.0080   -5.4960   -0.3150 C   0  0  0  0  0  0  0  0  0  0  0  0
    9.8250   -4.9810    1.8730 C   0  0  0  0  0  0  0  0  0  0  0  0
    8.8030   -4.9590    0.9110 C   0  0  0  0  0  0  0  0  0  0  0  0
   12.6070   -6.7260    0.0360 C   0  0  0  0  0  0  0  0  0  0  0  0
   12.7790   -7.7790   -0.8510 C   0  0  0  0  0  0  0  0  0  0  0  0
   15.5420   -9.9560   -2.2650 C   0  0  0  0  0  0  0  0  0  0  0  0
   16.2360   -9.1370   -3.3720 C   0  0  0  0  0  0  0  0  0  0  0  0
   19.3920  -10.4760   -5.0700 C   0  0  0  0  0  0  0  0  0  0  0  0
   18.0770  -10.0750   -4.8440 C   0  0  0  0  0  0  0  0  0  0  0  0
   18.6640   -9.4110   -2.6160 C   0  0  0  0  0  0  0  0  0  0  0  0
    7.0890   -4.3400   -1.1160 C   0  0  0  0  0  0  0  0  0  0  0  0
   14.0380   -8.3200   -1.0030 C   0  0  0  0  0  0  0  0  0  0  0  0
   14.9200   -6.7930    0.5970 C   0  0  0  0  0  0  0  0  0  0  0  0
   20.3420  -10.3530   -4.0640 C   0  0  0  0  0  0  0  0  0  0  0  0
   19.9750   -9.8150   -2.8460 C   0  0  0  0  0  0  0  0  0  0  0  0
   17.7010   -9.5330   -3.6030 C   0  0  0  0  0  0  0  0  0  0  0  0
    6.5470   -4.1990    0.2940 C   0  0  0  0  0  0  0  0  0  0  0  0
   10.3920   -6.5150   -1.6390 H   0  0  0  0  0  0  0  0  0  0  0  0
   11.8420   -5.5790    2.2810 H   0  0  0  0  0  0  0  0  0  0  0  0
    9.6630   -4.5570    2.8530 H   0  0  0  0  0  0  0  0  0  0  0  0
   11.9420   -8.1680   -1.4110 H   0  0  0  0  0  0  0  0  0  0  0  0
   16.1710   -9.9460   -1.3490 H   0  0  0  0  0  0  0  0  0  0  0  0
   15.4140  -11.0050   -2.6070 H   0  0  0  0  0  0  0  0  0  0  0  0
   16.4160   -8.1070   -2.9980 H   0  0  0  0  0  0  0  0  0  0  0  0
   19.6730  -10.8840   -6.0300 H   0  0  0  0  0  0  0  0  0  0  0  0
   17.3420  -10.1820   -5.6280 H   0  0  0  0  0  0  0  0  0  0  0  0
   18.3950   -8.9970   -1.6560 H   0  0  0  0  0  0  0  0  0  0  0  0
   14.5980   -9.0870   -4.2300 H   0  0  0  0  0  0  0  0  0  0  0  0
    7.6180   -3.4030   -1.3930 H   0  0  0  0  0  0  0  0  0  0  0  0
    6.2370   -4.4760   -1.8160 H   0  0  0  0  0  0  0  0  0  0  0  0
   15.7640   -6.4080    1.1620 H   0  0  0  0  0  0  0  0  0  0  0  0
   21.3590  -10.6760   -4.2330 H   0  0  0  0  0  0  0  0  0  0  0  0
   20.7130   -9.7080   -2.0650 H   0  0  0  0  0  0  0  0  0  0  0  0
    5.7510   -4.9580    0.4520 H   0  0  0  0  0  0  0  0  0  0  0  0
    6.0920   -3.1920    0.4060 H   0  0  0  0  0  0  0  0  0  0  0  0
   13.4340   -9.8030   -2.4190 H   0  0  0  0  0  0  0  0  0  0  0  0
  1  4  1  0  0  0  0
  1  7  1  0  0  0  0
  1 13  1  0  0  0  0
  3 37  1  0  0  0  0
  4 10  1  0  0  0  0
  4 27  1  0  0  0  0
  7 11  1  0  0  0  0
  7 28  1  0  0  0  0
  8 45  1  0  0  0  0
  9 10  1  0  0  0  0
 10 12  1  0  0  0  0
 11 12  1  0  0  0  0
 11 29  1  0  0  0  0
  6 12  1  0  0  0  0
  5 13  1  0  0  0  0
 13 14  1  0  0  0  0
 14 21  1  0  0  0  0
 14 30  1  0  0  0  0
  8 15  1  0  0  0  0
 15 16  1  0  0  0  0
 15 31  1  0  0  0  0
 15 32  1  0  0  0  0
  3 16  1  0  0  0  0
 16 25  1  0  0  0  0
 16 33  1  0  0  0  0
 17 18  1  0  0  0  0
 17 23  1  0  0  0  0
 17 34  1  0  0  0  0
 18 25  1  0  0  0  0
 18 35  1  0  0  0  0
 19 24  1  0  0  0  0
 19 25  1  0  0  0  0
 19 36  1  0  0  0  0
  9 20  1  0  0  0  0
 20 26  1  0  0  0  0
 20 38  1  0  0  0  0
 20 39  1  0  0  0  0
  2 21  1  0  0  0  0
  8 21  1  0  0  0  0
  2 22  1  0  0  0  0
  5 22  1  0  0  0  0
 22 40  1  0  0  0  0
 23 24  1  0  0  0  0
 23 41  1  0  0  0  0
 24 42  1  0  0  0  0
  6 26  1  0  0  0  0
 26 43  1  0  0  0  0
 26 44  1  0  0  0  0
M  END
$$$$
