2
  PyMOL2.4          3D                             0

 41 43  0  0  0  0  0  0  0  0999 V2000
   17.9040  -10.2130   -4.5140 C   0  0  0  0  0  0  0  0  0  0  0  0
   19.1620  -10.6630   -4.8190 C   0  0  0  0  0  0  0  0  0  0  0  0
   20.2000  -10.3400   -4.0000 C   0  0  0  0  0  0  0  0  0  0  0  0
   20.0000   -9.5720   -2.8740 C   0  0  0  0  0  0  0  0  0  0  0  0
   18.7130   -9.1270   -2.5860 C   0  0  0  0  0  0  0  0  0  0  0  0
   17.6520   -9.4430   -3.4040 C   0  0  0  0  0  0  0  0  0  0  0  0
   16.3080   -8.9400   -3.0400 C   0  0  0  0  0  0  0  0  0  0  0  0
   15.6390   -8.4220   -4.1590 O   0  5  0  0  0  0  0  0  0  0  0  0
   15.4530   -9.9970   -2.3980 C   0  0  0  0  0  0  0  0  0  0  0  0
   14.1720   -9.4360   -2.0790 N   0  0  0  0  0  0  0  0  0  0  0  0
   14.0590   -8.4070   -1.1230 C   0  0  0  0  0  0  0  0  0  0  0  0
   15.1040   -7.9230   -0.4380 N   0  0  0  0  0  0  0  0  0  0  0  0
   14.9580   -6.9390    0.4670 C   0  0  0  0  0  0  0  0  0  0  0  0
   13.7350   -6.4060    0.7130 N   0  0  0  0  0  0  0  0  0  0  0  0
   12.6430   -6.8440    0.0620 C   0  0  0  0  0  0  0  0  0  0  0  0
   11.3340   -6.2640    0.3340 C   0  0  0  0  0  0  0  0  0  0  0  0
   11.2560   -5.2410    1.2920 C   0  0  0  0  0  0  0  0  0  0  0  0
   10.0560   -4.6490    1.5980 C   0  0  0  0  0  0  0  0  0  0  0  0
    8.8750   -5.0200    0.9920 C   0  0  0  0  0  0  0  0  0  0  0  0
    7.5940   -4.3600    1.3460 C   0  0  0  0  0  0  0  0  0  0  0  0
    8.9710   -6.0240    0.0560 C   0  0  0  0  0  0  0  0  0  0  0  0
   10.1800   -6.6410   -0.2720 C   0  0  0  0  0  0  0  0  0  0  0  0
   12.8040   -7.8350   -0.8470 C   0  0  0  0  0  0  0  0  0  0  0  0
   17.0920  -10.4830   -5.1830 H   0  0  0  0  0  0  0  0  0  0  0  0
   19.3040  -11.2600   -5.6990 H   0  0  0  0  0  0  0  0  0  0  0  0
   21.2070  -10.6850   -4.2200 H   0  0  0  0  0  0  0  0  0  0  0  0
   20.8170   -9.3070   -2.2110 H   0  0  0  0  0  0  0  0  0  0  0  0
   18.6080   -8.5280   -1.6920 H   0  0  0  0  0  0  0  0  0  0  0  0
   16.4240   -8.0850   -2.3500 H   0  0  0  0  0  0  0  0  0  0  0  0
   15.2930  -10.8710   -3.0620 H   0  0  0  0  0  0  0  0  0  0  0  0
   15.9570  -10.4040   -1.4860 H   0  0  0  0  0  0  0  0  0  0  0  0
   13.3120   -9.7800   -2.5470 H   0  0  0  0  0  0  0  0  0  0  0  0
   15.8530   -6.5930    0.9880 H   0  0  0  0  0  0  0  0  0  0  0  0
   12.1920   -4.9330    1.7850 H   0  0  0  0  0  0  0  0  0  0  0  0
   10.0330   -3.8590    2.3460 H   0  0  0  0  0  0  0  0  0  0  0  0
    7.6910   -3.8640    2.3340 H   0  0  0  0  0  0  0  0  0  0  0  0
    6.7470   -5.0660    1.4080 H   0  0  0  0  0  0  0  0  0  0  0  0
    7.4370   -3.5510    0.6090 H   0  0  0  0  0  0  0  0  0  0  0  0
    8.0590   -6.3450   -0.4450 H   0  0  0  0  0  0  0  0  0  0  0  0
   10.1860   -7.4320   -1.0240 H   0  0  0  0  0  0  0  0  0  0  0  0
   11.9630   -8.2190   -1.3930 H   0  0  0  0  0  0  0  0  0  0  0  0
  1  2  2  0  0  0  0
  1  6  1  0  0  0  0
  1 24  1  0  0  0  0
  2  3  1  0  0  0  0
  2 25  1  0  0  0  0
  3  4  2  0  0  0  0
  3 26  1  0  0  0  0
  4  5  1  0  0  0  0
  4 27  1  0  0  0  0
  5  6  2  0  0  0  0
  5 28  1  0  0  0  0
  6  7  1  0  0  0  0
  7  8  1  0  0  0  0
  7  9  1  0  0  0  0
  7 29  1  0  0  0  0
  9 10  1  0  0  0  0
  9 30  1  0  0  0  0
  9 31  1  0  0  0  0
 10 11  1  0  0  0  0
 10 32  1  0  0  0  0
 11 12  2  0  0  0  0
 11 23  1  0  0  0  0
 12 13  1  0  0  0  0
 13 14  2  0  0  0  0
 13 33  1  0  0  0  0
 14 15  1  0  0  0  0
 15 16  1  0  0  0  0
 15 23  2  0  0  0  0
 16 17  2  0  0  0  0
 16 22  1  0  0  0  0
 17 18  1  0  0  0  0
 17 34  1  0  0  0  0
 18 19  2  0  0  0  0
 18 35  1  0  0  0  0
 19 20  1  0  0  0  0
 19 21  1  0  0  0  0
 20 36  1  0  0  0  0
 20 37  1  0  0  0  0
 20 38  1  0  0  0  0
 21 22  2  0  0  0  0
 21 39  1  0  0  0  0
 22 40  1  0  0  0  0
 23 41  1  0  0  0  0
M  END
$$$$
