
     RDKit          3D

 42 44  0  0  0  0  0  0  0  0999 V2000
   17.8714  -10.2767   -4.5097 C   0  0  0  0  0  0  0  0  0  0  0  0
   19.1419  -10.7192   -4.8030 C   0  0  0  0  0  0  0  0  0  0  0  0
   20.2125  -10.3843   -4.0071 C   0  0  0  0  0  0  0  0  0  0  0  0
   20.0108   -9.5980   -2.9053 C   0  0  0  0  0  0  0  0  0  0  0  0
   18.7259   -9.1564   -2.6173 C   0  0  0  0  0  0  0  0  0  0  0  0
   17.6457   -9.4839   -3.4051 C   0  0  0  0  0  0  0  0  0  0  0  0
   16.3056   -8.9739   -3.0276 C   0  0  1  0  0  0  0  0  0  0  0  0
   15.6718   -8.4990   -4.1979 O   0  0  0  0  0  0  0  0  0  0  0  0
   15.4420  -10.0305   -2.4035 C   0  0  0  0  0  0  0  0  0  0  0  0
   14.1626   -9.4552   -2.0746 N   0  0  0  0  0  0  0  0  0  0  0  0
   14.0311   -8.4028   -1.1368 C   0  0  0  0  0  0  0  0  0  0  0  0
   15.0339   -7.8523   -0.4655 N   0  0  0  0  0  0  0  0  0  0  0  0
   14.9436   -6.8697    0.4174 C   0  0  0  0  0  0  0  0  0  0  0  0
   13.7398   -6.3633    0.6784 N   0  0  0  0  0  0  0  0  0  0  0  0
   12.6451   -6.8584    0.0423 C   0  0  0  0  0  0  0  0  0  0  0  0
   11.3581   -6.2716    0.3653 C   0  0  0  0  0  0  0  0  0  0  0  0
   10.2155   -6.7337   -0.2479 C   0  0  0  0  0  0  0  0  0  0  0  0
    8.9967   -6.1668    0.0699 C   0  0  0  0  0  0  0  0  0  0  0  0
    8.9309   -5.1518    0.9898 C   0  0  0  0  0  0  0  0  0  0  0  0
    7.6189   -4.5472    1.3274 C   0  0  0  0  0  0  0  0  0  0  0  0
   10.0836   -4.6911    1.6034 C   0  0  0  0  0  0  0  0  0  0  0  0
   11.2987   -5.2478    1.2944 C   0  0  0  0  0  0  0  0  0  0  0  0
   12.7571   -7.8758   -0.8688 C   0  0  0  0  0  0  0  0  0  0  0  0
   17.0617  -10.5567   -5.1512 H   0  0  0  0  0  0  0  0  0  0  0  0
   19.3286  -11.3313   -5.6526 H   0  0  0  0  0  0  0  0  0  0  0  0
   21.2106  -10.7331   -4.2391 H   0  0  0  0  0  0  0  0  0  0  0  0
   20.8708   -9.3505   -2.2976 H   0  0  0  0  0  0  0  0  0  0  0  0
   18.6306   -8.5376   -1.7323 H   0  0  0  0  0  0  0  0  0  0  0  0
   16.4565   -8.1493   -2.3050 H   0  0  0  0  0  0  0  0  0  0  0  0
   16.0692   -7.5876   -4.3506 H   0  0  0  0  0  0  0  0  0  0  0  0
   15.3209  -10.9255   -3.0275 H   0  0  0  0  0  0  0  0  0  0  0  0
   15.8931  -10.3785   -1.4455 H   0  0  0  0  0  0  0  0  0  0  0  0
   13.3117   -9.8215   -2.5375 H   0  0  0  0  0  0  0  0  0  0  0  0
   15.8615   -6.5092    0.9005 H   0  0  0  0  0  0  0  0  0  0  0  0
   10.1806   -7.5254   -0.9799 H   0  0  0  0  0  0  0  0  0  0  0  0
    8.0894   -6.5052   -0.3908 H   0  0  0  0  0  0  0  0  0  0  0  0
    6.8388   -5.3379    1.3058 H   0  0  0  0  0  0  0  0  0  0  0  0
    7.6774   -4.1048    2.3478 H   0  0  0  0  0  0  0  0  0  0  0  0
    7.3486   -3.8048    0.5497 H   0  0  0  0  0  0  0  0  0  0  0  0
   10.0564   -3.8825    2.3404 H   0  0  0  0  0  0  0  0  0  0  0  0
   12.1992   -4.9086    1.7547 H   0  0  0  0  0  0  0  0  0  0  0  0
   11.9265   -8.3088   -1.4039 H   0  0  0  0  0  0  0  0  0  0  0  0
  1  2  2  0
  2  3  1  0
  3  4  2  0
  4  5  1  0
  5  6  2  0
  6  7  1  0
  7  8  1  0
  7  9  1  0
  9 10  1  0
 10 11  1  0
 11 12  2  0
 12 13  1  0
 13 14  2  0
 14 15  1  0
 15 16  1  0
 16 17  2  0
 17 18  1  0
 18 19  2  0
 19 20  1  0
 19 21  1  0
 21 22  2  0
 15 23  2  0
  6  1  1  0
 23 11  1  0
 22 16  1  0
  1 24  1  0
  2 25  1  0
  3 26  1  0
  4 27  1  0
  5 28  1  0
  7 29  1  1
  8 30  1  0
  9 31  1  0
  9 32  1  0
 10 33  1  0
 13 34  1  0
 17 35  1  0
 18 36  1  0
 20 37  1  0
 20 38  1  0
 20 39  1  0
 21 40  1  0
 22 41  1  0
 23 42  1  0
M  END
